18

C             4.0753469482       -1.4547225149       -0.0095331645
C             5.2759412364        0.7080287464        0.0075908738
C             4.0768456365       -0.0397259530       -0.0020912662
C             5.3204634143       -2.1252251526       -0.0038497986
C             6.5043326335        0.0052610003        0.0020515013
C             6.5245018619       -1.3994091507       -0.0017195594
C             2.7838403218       -2.2118016941        0.0076924688
C             5.2568550774        2.2046932467       -0.0055435048
H             3.1214776080        0.4904298723       -0.0048909113
H             5.3446021926       -3.2160124468       -0.0031461205
H             7.4418440205        0.5637438444        0.0034214742
H             7.4789826666       -1.9280405341       -0.0013837657
H             2.0134977299       -1.7039000133       -0.5929667837
H             2.3823712287       -2.2914244979        1.0344955889
H             2.9038833660       -3.2362166507       -0.3723589590
H             6.0741604518        2.6208905137        0.6033602520
H             5.3988333188        2.5972508373       -1.0289044595
H             4.3046602869        2.6061805471        0.3677761341