6

O             3.5469081708       -0.3839376084        0.1706344984
C             4.7561182364        0.3152658960       -0.1375162744
H             5.3897398702       -0.3841763066       -0.6963417167
H             5.3013829086        0.6274513471        0.7694788831
H             4.5749377427        1.2002217270       -0.7708330831
H             2.9647530713        0.2155769450        0.6645776927
