15

C             4.0696860810        0.6900505438       -0.0547033214
C             2.8667890954       -0.0293093698       -0.0313016018
C             5.2727778012       -0.0293000289       -0.0313141499
C             4.0697531663        2.1966328011       -0.0781908918
C             2.8633417312       -1.4243921165        0.0132963799
C             5.2760802014       -1.4244282153        0.0132796819
C             4.0697692823       -2.1275904625        0.0338897333
H             1.9209001950        0.5166982514       -0.0553188050
H             6.2185501417        0.5166733385       -0.0552888890
H             4.9602054893        2.5926029147       -0.5853919264
H             4.0697370714        2.6037159361        0.9451590612
H             3.1792809901        2.5926058661       -0.5854043423
H             1.9146760798       -1.9634159893        0.0298622895
H             6.2248001623       -1.9634244346        0.0298915920
H             4.0697325115       -3.2175190346        0.0615351898
